data_CONTCAR_surface-O-defect_O_Na
_audit_creation_date              2023-01-14
_audit_creation_method            'Materials Studio'
_symmetry_space_group_name_H-M    'P1'
_symmetry_Int_Tables_number       1
_symmetry_cell_setting            triclinic
loop_
_symmetry_equiv_pos_as_xyz
  x,y,z
_cell_length_a                    11.1038
_cell_length_b                    11.2002
_cell_length_c                    32.4346
_cell_angle_alpha                 90.0000
_cell_angle_beta                  90.0000
_cell_angle_gamma                 90.0000
loop_
_atom_site_label
_atom_site_type_symbol
_atom_site_fract_x
_atom_site_fract_y
_atom_site_fract_z
_atom_site_U_iso_or_equiv
_atom_site_adp_type
_atom_site_occupancy
O1     O     0.51898   0.46775   0.48544   0.00000  Uiso   1.00
O2     O     0.51898   0.46775   0.44486   0.00000  Uiso   1.00
