data_C_lcy_opt_2
_audit_creation_date              2023-11-28
_audit_creation_method            'Materials Studio'
_symmetry_space_group_name_H-M    'P1'
_symmetry_Int_Tables_number       1
_symmetry_cell_setting            triclinic
loop_
_symmetry_equiv_pos_as_xyz
  x,y,z
_cell_length_a                    20.5253
_cell_length_b                    21.3338
_cell_length_c                    20.0361
_cell_angle_alpha                 90.0003
_cell_angle_beta                  91.5739
_cell_angle_gamma                 89.9255
loop_
_atom_site_label
_atom_site_type_symbol
_atom_site_fract_x
_atom_site_fract_y
_atom_site_fract_z
_atom_site_U_iso_or_equiv
_atom_site_adp_type
_atom_site_occupancy
C1     C     0.58175   0.35635   0.53216   0.00000  Uiso   1.00
C2     C     0.53132   0.38481   0.56638   0.00000  Uiso   1.00
C3     C     0.48585   0.42230   0.53318   0.00000  Uiso   1.00
C4     C     0.48968   0.43259   0.46485   0.00000  Uiso   1.00
C5     C     0.53578   0.39874   0.42957   0.00000  Uiso   1.00
C6     C     0.58162   0.36167   0.46267   0.00000  Uiso   1.00
H1     H     0.52763   0.37822   0.61979   0.00000  Uiso   1.00
H2     H     0.44798   0.44434   0.56162   0.00000  Uiso   1.00
H3     H     0.53699   0.40294   0.37566   0.00000  Uiso   1.00
H4     H     0.61890   0.33848   0.43434   0.00000  Uiso   1.00
C7     C     0.55248   0.53316   0.39878   0.00000  Uiso   1.00
C8     C     0.48516   0.52803   0.39050   0.00000  Uiso   1.00
C9     C     0.45259   0.57377   0.35243   0.00000  Uiso   1.00
C10    C     0.48627   0.62213   0.32288   0.00000  Uiso   1.00
C11    C     0.55404   0.62661   0.33029   0.00000  Uiso   1.00
C12    C     0.58636   0.58094   0.36853   0.00000  Uiso   1.00
C13    C     0.44538   0.47863   0.42681   0.00000  Uiso   1.00
C14    C     0.40417   0.51732   0.47403   0.00000  Uiso   1.00
C15    C     0.33657   0.52081   0.46881   0.00000  Uiso   1.00
C16    C     0.30190   0.55733   0.51282   0.00000  Uiso   1.00
C17    C     0.33396   0.59158   0.56300   0.00000  Uiso   1.00
C18    C     0.40200   0.58979   0.56676   0.00000  Uiso   1.00
C19    C     0.43644   0.55367   0.52258   0.00000  Uiso   1.00
C20    C     0.40643   0.44018   0.31102   0.00000  Uiso   1.00
C21    C     0.36886   0.39992   0.27167   0.00000  Uiso   1.00
C22    C     0.32828   0.35527   0.29995   0.00000  Uiso   1.00
C23    C     0.32663   0.35223   0.36923   0.00000  Uiso   1.00
C24    C     0.36408   0.39249   0.40860   0.00000  Uiso   1.00
C25    C     0.40391   0.43758   0.38022   0.00000  Uiso   1.00
C26    C     0.28788   0.31238   0.25369   0.00000  Uiso   1.00
C27    C     0.19641   0.43221   0.10264   0.00000  Uiso   1.00
C28    C     0.22202   0.37422   0.08482   0.00000  Uiso   1.00
C29    C     0.25244   0.33584   0.13214   0.00000  Uiso   1.00
C30    C     0.25739   0.35392   0.19879   0.00000  Uiso   1.00
C31    C     0.23201   0.41228   0.21646   0.00000  Uiso   1.00
C32    C     0.20254   0.45107   0.16921   0.00000  Uiso   1.00
C33    C     0.23428   0.27910   0.29183   0.00000  Uiso   1.00
C34    C     0.25121   0.23037   0.33567   0.00000  Uiso   1.00
C35    C     0.20427   0.19821   0.37022   0.00000  Uiso   1.00
C36    C     0.13824   0.21321   0.36185   0.00000  Uiso   1.00
C37    C     0.12141   0.26180   0.31802   0.00000  Uiso   1.00
C38    C     0.16856   0.29420   0.28382   0.00000  Uiso   1.00
C39    C     0.30218   0.20720   0.19784   0.00000  Uiso   1.00
C40    C     0.33922   0.16017   0.16997   0.00000  Uiso   1.00
C41    C     0.40650   0.16687   0.16542   0.00000  Uiso   1.00
C42    C     0.43559   0.22116   0.19059   0.00000  Uiso   1.00
C43    C     0.39851   0.26745   0.21994   0.00000  Uiso   1.00
C44    C     0.33117   0.26163   0.22359   0.00000  Uiso   1.00
H5     H     0.57987   0.50000   0.42937   0.00000  Uiso   1.00
H6     H     0.39990   0.57217   0.34672   0.00000  Uiso   1.00
H7     H     0.45911   0.65743   0.29481   0.00000  Uiso   1.00
H8     H     0.63895   0.58216   0.37499   0.00000  Uiso   1.00
H9     H     0.30999   0.49484   0.43041   0.00000  Uiso   1.00
H10    H     0.24912   0.55822   0.50852   0.00000  Uiso   1.00
H11    H     0.42825   0.61759   0.60394   0.00000  Uiso   1.00
H12    H     0.48928   0.55357   0.52584   0.00000  Uiso   1.00
H13    H     0.43773   0.47363   0.28689   0.00000  Uiso   1.00
H14    H     0.37082   0.40408   0.21781   0.00000  Uiso   1.00
H15    H     0.29583   0.31860   0.39370   0.00000  Uiso   1.00
H16    H     0.36223   0.38854   0.46249   0.00000  Uiso   1.00
H17    H     0.21866   0.35887   0.03323   0.00000  Uiso   1.00
H18    H     0.27204   0.29123   0.11628   0.00000  Uiso   1.00
H19    H     0.23506   0.42759   0.26806   0.00000  Uiso   1.00
H20    H     0.18259   0.49576   0.18448   0.00000  Uiso   1.00
H21    H     0.30191   0.21678   0.34237   0.00000  Uiso   1.00
H22    H     0.21939   0.16129   0.40448   0.00000  Uiso   1.00
H23    H     0.07061   0.27406   0.30922   0.00000  Uiso   1.00
H24    H     0.15297   0.33121   0.24996   0.00000  Uiso   1.00
H25    H     0.24982   0.20115   0.19979   0.00000  Uiso   1.00
H26    H     0.31551   0.11837   0.15041   0.00000  Uiso   1.00
H27    H     0.48793   0.22713   0.18795   0.00000  Uiso   1.00
H28    H     0.42336   0.30834   0.24005   0.00000  Uiso   1.00
C45    C     0.69704   0.11517   0.83074   0.00000  Uiso   1.00
C46    C     0.66301   0.16443   0.79996   0.00000  Uiso   1.00
C47    C     0.69268   0.20324   0.75466   0.00000  Uiso   1.00
C48    C     0.75759   0.19456   0.73851   0.00000  Uiso   1.00
C49    C     0.79230   0.14645   0.77081   0.00000  Uiso   1.00
C50    C     0.76263   0.10730   0.81605   0.00000  Uiso   1.00
H29    H     0.61257   0.17315   0.81179   0.00000  Uiso   1.00
H30    H     0.66381   0.24030   0.73170   0.00000  Uiso   1.00
H31    H     0.84315   0.13882   0.75980   0.00000  Uiso   1.00
H32    H     0.79063   0.06960   0.83918   0.00000  Uiso   1.00
C51    C     0.84284   0.28965   0.78941   0.00000  Uiso   1.00
C52    C     0.82981   0.28826   0.72094   0.00000  Uiso   1.00
C53    C     0.84981   0.33921   0.68273   0.00000  Uiso   1.00
C54    C     0.87955   0.39075   0.71227   0.00000  Uiso   1.00
C55    C     0.89056   0.39310   0.78134   0.00000  Uiso   1.00
C56    C     0.87282   0.34115   0.81909   0.00000  Uiso   1.00
C57    C     0.79096   0.23566   0.68682   0.00000  Uiso   1.00
C58    C     0.73827   0.26709   0.64232   0.00000  Uiso   1.00
C59    C     0.71851   0.24475   0.57977   0.00000  Uiso   1.00
C60    C     0.66770   0.27287   0.54380   0.00000  Uiso   1.00
C61    C     0.63504   0.32455   0.56924   0.00000  Uiso   1.00
C62    C     0.65577   0.34794   0.63140   0.00000  Uiso   1.00
C63    C     0.70616   0.31962   0.66722   0.00000  Uiso   1.00
C64    C     0.89701   0.20850   0.62738   0.00000  Uiso   1.00
C65    C     0.93112   0.17089   0.58367   0.00000  Uiso   1.00
C66    C     0.90255   0.11812   0.55417   0.00000  Uiso   1.00
C67    C     0.84116   0.10087   0.57590   0.00000  Uiso   1.00
C68    C     0.80753   0.13762   0.62016   0.00000  Uiso   1.00
C69    C     0.83377   0.19371   0.64462   0.00000  Uiso   1.00
C70    C     0.93689   0.07713   0.50229   0.00000  Uiso   1.00
C71    C     0.08773   0.17875   0.39764   0.00000  Uiso   1.00
C72    C     0.09425   0.11499   0.41204   0.00000  Uiso   1.00
C73    C     0.04647   0.08295   0.44570   0.00000  Uiso   1.00
C74    C     0.99023   0.11306   0.46639   0.00000  Uiso   1.00
C75    C     0.98329   0.17666   0.45092   0.00000  Uiso   1.00
C76    C     0.03110   0.20890   0.41769   0.00000  Uiso   1.00
C77    C     0.88202   0.05889   0.45178   0.00000  Uiso   1.00
C78    C     0.84421   0.00725   0.45913   0.00000  Uiso   1.00
C79    C     0.78174   0.00102   0.41882   0.00000  Uiso   1.00
C80    C     0.76262   0.05873   0.38362   0.00000  Uiso   1.00
C81    C     0.79513   0.11357   0.38901   0.00000  Uiso   1.00
C82    C     0.86143   0.10695   0.40645   0.00000  Uiso   1.00
C83    C     0.97702   0.96297   0.51200   0.00000  Uiso   1.00
C84    C     0.00959   0.91577   0.54722   0.00000  Uiso   1.00
C85    C     0.03566   0.92661   0.61121   0.00000  Uiso   1.00
C86    C     0.02678   0.98572   0.63937   0.00000  Uiso   1.00
C87    C     0.99372   0.03235   0.60449   0.00000  Uiso   1.00
C88    C     0.96830   0.02210   0.54012   0.00000  Uiso   1.00
H33    H     0.82890   0.25073   0.82067   0.00000  Uiso   1.00
H34    H     0.84032   0.33931   0.62920   0.00000  Uiso   1.00
H35    H     0.89274   0.43021   0.68134   0.00000  Uiso   1.00
H36    H     0.88248   0.34067   0.87257   0.00000  Uiso   1.00
H37    H     0.74240   0.20479   0.55774   0.00000  Uiso   1.00
H38    H     0.65298   0.25342   0.49571   0.00000  Uiso   1.00
H39    H     0.63277   0.38921   0.65185   0.00000  Uiso   1.00
H40    H     0.72084   0.33900   0.71533   0.00000  Uiso   1.00
H41    H     0.92095   0.24980   0.64776   0.00000  Uiso   1.00
H42    H     0.98071   0.18392   0.57271   0.00000  Uiso   1.00
H43    H     0.81801   0.05831   0.55791   0.00000  Uiso   1.00
H44    H     0.75983   0.12240   0.63549   0.00000  Uiso   1.00
H45    H     0.13681   0.08947   0.39606   0.00000  Uiso   1.00
H46    H     0.05375   0.03346   0.45560   0.00000  Uiso   1.00
H47    H     0.94011   0.20214   0.46513   0.00000  Uiso   1.00
H48    H     0.02422   0.25850   0.40797   0.00000  Uiso   1.00
H49    H     0.85189   0.97456   0.50004   0.00000  Uiso   1.00
H50    H     0.74444   0.99513   0.45705   0.00000  Uiso   1.00
H51    H     0.77635   0.15690   0.36785   0.00000  Uiso   1.00
H52    H     0.89659   0.13895   0.38593   0.00000  Uiso   1.00
H53    H     0.95903   0.95343   0.46162   0.00000  Uiso   1.00
H54    H     0.01620   0.87049   0.52371   0.00000  Uiso   1.00
H55    H     0.04565   0.99539   0.68939   0.00000  Uiso   1.00
H56    H     0.98839   0.07765   0.62817   0.00000  Uiso   1.00
C89    C     0.15948   0.47122   0.05396   0.00000  Uiso   1.00
C90    C     0.11175   0.44350   0.01299   0.00000  Uiso   1.00
C91    C     0.07172   0.47957   0.97152   0.00000  Uiso   1.00
C92    C     0.07847   0.54444   0.96887   0.00000  Uiso   1.00
C93    C     0.12880   0.57177   0.00718   0.00000  Uiso   1.00
C94    C     0.16815   0.53597   0.04968   0.00000  Uiso   1.00
H57    H     0.10428   0.39322   0.01490   0.00000  Uiso   1.00
H58    H     0.03451   0.45584   0.94175   0.00000  Uiso   1.00
H59    H     0.13684   0.62195   0.00435   0.00000  Uiso   1.00
H60    H     0.20609   0.55862   0.07967   0.00000  Uiso   1.00
C95    C     0.99594   0.62627   0.04130   0.00000  Uiso   1.00
C96    C     0.98821   0.62472   0.97207   0.00000  Uiso   1.00
C97    C     0.93655   0.65879   0.94301   0.00000  Uiso   1.00
C98    C     0.89525   0.69419   0.98159   0.00000  Uiso   1.00
C99    C     0.90318   0.69543   0.05099   0.00000  Uiso   1.00
C100   C     0.95395   0.66067   0.08014   0.00000  Uiso   1.00
C101   C     0.03241   0.58654   0.92697   0.00000  Uiso   1.00
C102   C     0.98903   0.54422   0.88279   0.00000  Uiso   1.00
C103   C     0.00253   0.52985   0.81683   0.00000  Uiso   1.00
C104   C     0.96928   0.48244   0.78310   0.00000  Uiso   1.00
C105   C     0.92097   0.44796   0.81409   0.00000  Uiso   1.00
C106   C     0.90378   0.46575   0.87841   0.00000  Uiso   1.00
C107   C     0.93730   0.51285   0.91206   0.00000  Uiso   1.00
C108   C     0.06411   0.69304   0.87640   0.00000  Uiso   1.00
C109   C     0.10263   0.72843   0.83487   0.00000  Uiso   1.00
C110   C     0.15283   0.70118   0.79933   0.00000  Uiso   1.00
C111   C     0.16429   0.63741   0.80850   0.00000  Uiso   1.00
C112   C     0.12634   0.60223   0.85063   0.00000  Uiso   1.00
C113   C     0.07464   0.62903   0.88443   0.00000  Uiso   1.00
C114   C     0.19523   0.74236   0.75549   0.00000  Uiso   1.00
C115   C     0.07440   0.87925   0.64862   0.00000  Uiso   1.00
C116   C     0.13219   0.89745   0.68136   0.00000  Uiso   1.00
C117   C     0.17050   0.85451   0.71642   0.00000  Uiso   1.00
C118   C     0.15228   0.79186   0.72055   0.00000  Uiso   1.00
C119   C     0.09349   0.77397   0.68917   0.00000  Uiso   1.00
C120   C     0.05542   0.81667   0.65334   0.00000  Uiso   1.00
C121   C     0.22951   0.70242   0.70334   0.00000  Uiso   1.00
C122   C     0.28428   0.66740   0.72333   0.00000  Uiso   1.00
C123   C     0.31774   0.63143   0.67816   0.00000  Uiso   1.00
C124   C     0.29751   0.62906   0.61110   0.00000  Uiso   1.00
C125   C     0.24258   0.66345   0.59116   0.00000  Uiso   1.00
C126   C     0.20930   0.69961   0.63656   0.00000  Uiso   1.00
C127   C     0.30222   0.80026   0.76787   0.00000  Uiso   1.00
C128   C     0.35175   0.82885   0.80483   0.00000  Uiso   1.00
C129   C     0.34954   0.83180   0.87436   0.00000  Uiso   1.00
C130   C     0.29637   0.80477   0.90527   0.00000  Uiso   1.00
C131   C     0.24679   0.77617   0.86810   0.00000  Uiso   1.00
C132   C     0.24869   0.77355   0.79881   0.00000  Uiso   1.00
H61    H     0.03455   0.59992   0.06633   0.00000  Uiso   1.00
H62    H     0.92792   0.65694   0.88938   0.00000  Uiso   1.00
H63    H     0.85550   0.71998   0.95761   0.00000  Uiso   1.00
H64    H     0.96127   0.66077   0.13396   0.00000  Uiso   1.00
H65    H     0.04042   0.55453   0.79098   0.00000  Uiso   1.00
H66    H     0.98312   0.47085   0.73273   0.00000  Uiso   1.00
H67    H     0.86435   0.44202   0.90293   0.00000  Uiso   1.00
H68    H     0.92417   0.52419   0.96271   0.00000  Uiso   1.00
H69    H     0.02591   0.71673   0.90287   0.00000  Uiso   1.00
H70    H     0.09296   0.77824   0.83013   0.00000  Uiso   1.00
H71    H     0.20303   0.61389   0.78269   0.00000  Uiso   1.00
H72    H     0.13761   0.55291   0.85738   0.00000  Uiso   1.00
H73    H     0.14834   0.94574   0.67845   0.00000  Uiso   1.00
H74    H     0.21509   0.87095   0.74066   0.00000  Uiso   1.00
H75    H     0.07701   0.72583   0.69287   0.00000  Uiso   1.00
H76    H     0.01017   0.80123   0.62946   0.00000  Uiso   1.00
H77    H     0.30178   0.66891   0.77486   0.00000  Uiso   1.00
H78    H     0.35976   0.60450   0.69540   0.00000  Uiso   1.00
H79    H     0.22618   0.66322   0.53925   0.00000  Uiso   1.00
H80    H     0.16752   0.72631   0.61845   0.00000  Uiso   1.00
H81    H     0.30540   0.79851   0.71396   0.00000  Uiso   1.00
H82    H     0.39204   0.84998   0.77915   0.00000  Uiso   1.00
H83    H     0.29373   0.80526   0.95925   0.00000  Uiso   1.00
H84    H     0.20652   0.75565   0.89425   0.00000  Uiso   1.00
C133   C     0.85724   0.72987   0.09309   0.00000  Uiso   1.00
C134   C     0.82972   0.69972   0.14724   0.00000  Uiso   1.00
C135   C     0.78346   0.72945   0.18514   0.00000  Uiso   1.00
C136   C     0.76369   0.79064   0.17104   0.00000  Uiso   1.00
C137   C     0.79362   0.82174   0.11876   0.00000  Uiso   1.00
C138   C     0.83904   0.79175   0.07989   0.00000  Uiso   1.00
H85    H     0.84312   0.65166   0.15880   0.00000  Uiso   1.00
H86    H     0.76218   0.70345   0.22552   0.00000  Uiso   1.00
H87    H     0.78045   0.86986   0.10722   0.00000  Uiso   1.00
H88    H     0.86065   0.81687   0.03898   0.00000  Uiso   1.00
C139   C     0.79864   0.88490   0.27422   0.00000  Uiso   1.00
C140   C     0.73481   0.86385   0.26667   0.00000  Uiso   1.00
C141   C     0.68944   0.88362   0.31309   0.00000  Uiso   1.00
C142   C     0.70705   0.92450   0.36379   0.00000  Uiso   1.00
C143   C     0.77055   0.94736   0.36988   0.00000  Uiso   1.00
C144   C     0.81639   0.92647   0.32525   0.00000  Uiso   1.00
C145   C     0.70914   0.82295   0.20897   0.00000  Uiso   1.00
C146   C     0.66523   0.77298   0.23966   0.00000  Uiso   1.00
C147   C     0.60579   0.75372   0.21169   0.00000  Uiso   1.00
C148   C     0.56966   0.70668   0.24079   0.00000  Uiso   1.00
C149   C     0.59112   0.67762   0.29975   0.00000  Uiso   1.00
C150   C     0.64989   0.69826   0.32904   0.00000  Uiso   1.00
C151   C     0.68623   0.74451   0.29937   0.00000  Uiso   1.00
C152   C     0.65670   0.92688   0.17124   0.00000  Uiso   1.00
C153   C     0.61851   0.96173   0.12677   0.00000  Uiso   1.00
C154   C     0.59050   0.93476   0.06950   0.00000  Uiso   1.00
C155   C     0.60590   0.87250   0.05621   0.00000  Uiso   1.00
C156   C     0.64564   0.83812   0.09975   0.00000  Uiso   1.00
C157   C     0.66994   0.86394   0.15945   0.00000  Uiso   1.00
C158   C     0.54799   0.97475   0.02210   0.00000  Uiso   1.00
C159   C     0.44553   0.11843   0.13200   0.00000  Uiso   1.00
C160   C     0.48078   0.13434   0.07612   0.00000  Uiso   1.00
C161   C     0.51429   0.08901   0.04124   0.00000  Uiso   1.00
C162   C     0.51492   0.02673   0.06193   0.00000  Uiso   1.00
C163   C     0.48201   0.01157   0.11998   0.00000  Uiso   1.00
C164   C     0.44703   0.05644   0.15397   0.00000  Uiso   1.00
C165   C     0.49573   0.93474   0.98616   0.00000  Uiso   1.00
C166   C     0.51247   0.89767   0.93166   0.00000  Uiso   1.00
C167   C     0.46599   0.86330   0.89612   0.00000  Uiso   1.00
C168   C     0.40063   0.86472   0.91366   0.00000  Uiso   1.00
C169   C     0.38403   0.90079   0.96868   0.00000  Uiso   1.00
C170   C     0.43065   0.93508   0.00403   0.00000  Uiso   1.00
C171   C     0.56152   0.02687   0.91020   0.00000  Uiso   1.00
C172   C     0.59689   0.06030   0.86459   0.00000  Uiso   1.00
C173   C     0.66258   0.07425   0.87723   0.00000  Uiso   1.00
C174   C     0.69221   0.05098   0.93560   0.00000  Uiso   1.00
C175   C     0.65667   0.01706   0.98114   0.00000  Uiso   1.00
C176   C     0.59061   0.00529   0.96973   0.00000  Uiso   1.00
H89    H     0.83520   0.87007   0.23946   0.00000  Uiso   1.00
H90    H     0.63938   0.86764   0.30871   0.00000  Uiso   1.00
H91    H     0.67047   0.94016   0.39816   0.00000  Uiso   1.00
H92    H     0.86620   0.94331   0.32917   0.00000  Uiso   1.00
H93    H     0.58614   0.77517   0.16648   0.00000  Uiso   1.00
H94    H     0.52437   0.69218   0.21632   0.00000  Uiso   1.00
H95    H     0.66751   0.67850   0.37601   0.00000  Uiso   1.00
H96    H     0.73153   0.75924   0.32366   0.00000  Uiso   1.00
H97    H     0.67628   0.95029   0.21532   0.00000  Uiso   1.00
H98    H     0.61026   0.01080   0.13777   0.00000  Uiso   1.00
H99    H     0.58692   0.84952   0.01159   0.00000  Uiso   1.00
H100   H     0.65805   0.79036   0.08648   0.00000  Uiso   1.00
H101   H     0.48081   0.18245   0.05862   0.00000  Uiso   1.00
H102   H     0.53984   0.10333   0.99722   0.00000  Uiso   1.00
H103   H     0.48358   0.96394   0.13891   0.00000  Uiso   1.00
H104   H     0.42102   0.04323   0.19820   0.00000  Uiso   1.00
H105   H     0.56239   0.89678   0.91528   0.00000  Uiso   1.00
H106   H     0.48094   0.83509   0.85417   0.00000  Uiso   1.00
H107   H     0.33363   0.90380   0.98324   0.00000  Uiso   1.00
H108   H     0.41452   0.96336   0.04528   0.00000  Uiso   1.00
H109   H     0.51021   0.01835   0.89966   0.00000  Uiso   1.00
H110   H     0.57288   0.07601   0.81870   0.00000  Uiso   1.00
H111   H     0.74315   0.06089   0.94683   0.00000  Uiso   1.00
H112   H     0.68106   0.00076   0.02658   0.00000  Uiso   1.00
loop_
_geom_bond_atom_site_label_1
_geom_bond_atom_site_label_2
_geom_bond_distance
_geom_bond_site_symmetry_2
_ccdc_geom_bond_type
C1     C2      1.396   .     D
C1     C6      1.397   .     S
C1     C61     1.470   .     S
C2     C3      1.385   .     S
C2     H1      1.084   .     S
C3     C4      1.391   .     D
C3     H2      1.083   .     S
C4     C5      1.397   .     S
C4     C13     1.527   .     S
C5     C6      1.384   .     D
C5     H3      1.085   .     S
C6     H4      1.084   .     S
C7     C8      1.392   .     D
C7     C12     1.384   .     S
C7     H5      1.083   .     S
C8     C9      1.397   .     S
C8     C13     1.530   .     S
C9     C10     1.385   .     D
C9     H6      1.085   .     S
C10    C11     1.398   .     S
C10    H7      1.084   .     S
C11    C12     1.395   .     D
C11    C149    1.472   .     S
C12    H8      1.084   .     S
C13    C14     1.528   .     S
C13    C25     1.524   .     S
C14    C15     1.390   .     D
C14    C19     1.397   .     S
C15    C16     1.387   .     S
C15    H9      1.084   .     S
C16    C17     1.394   .     D
C16    H10     1.085   .     S
C17    C18     1.397   .     S
C17    C124    1.472   .     S
C18    C19     1.382   .     D
C18    H11     1.084   .     S
C19    H12     1.085   .     S
C20    C21     1.386   .     D
C20    C25     1.390   .     S
C20    H13     1.084   .     S
C21    C22     1.396   .     S
C21    H14     1.085   .     S
C22    C23     1.391   .     D
C22    C26     1.531   .     S
C23    C24     1.385   .     S
C23    H15     1.083   .     S
C24    C25     1.394   .     D
C24    H16     1.085   .     S
C26    C30     1.532   .     S
C26    C33     1.532   .     S
C26    C44     1.534   .     S
C27    C28     1.394   .     S
C27    C32     1.396   .     D
C27    C89     1.475   .     S
C28    C29     1.388   .     D
C28    H17     1.085   .     S
C29    C30     1.391   .     S
C29    H18     1.084   .     S
C30    C31     1.398   .     D
C31    C32     1.384   .     S
C31    H19     1.084   .     S
C32    H20     1.084   .     S
C33    C34     1.398   .     D
C33    C38     1.391   .     S
C34    C35     1.384   .     S
C34    H21     1.085   .     S
C35    C36     1.398   .     D
C35    H22     1.084   .     S
C36    C37     1.396   .     S
C36    C71     1.474   .     S
C37    C38     1.386   .     D
C37    H23     1.084   .     S
C38    H24     1.083   .     S
C39    C40     1.385   .     D
C39    C44     1.398   .     S
C39    H25     1.084   .     S
C40    C41     1.394   .     S
C40    H26     1.085   .     S
C41    C42     1.392   .     D
C41    C159    1.478   .     S
C42    C43     1.387   .     S
C42    H27     1.085   .     S
C43    C44     1.392   .     D
C43    H28     1.083   .     S
C45    C46     1.395   .     D
C45    C50     1.396   .     S
C45    C173    1.472   .     S
C46    C47     1.383   .     S
C46    H29     1.084   .     S
C47    C48     1.392   .     D
C47    H30     1.082   .     S
C48    C49     1.397   .     S
C48    C57     1.533   .     S
C49    C50     1.386   .     D
C49    H31     1.085   .     S
C50    H32     1.084   .     S
C51    C52     1.391   .     S
C51    C56     1.386   .     D
C51    H33     1.084   .     S
C52    C53     1.398   .     D
C52    C57     1.528   .     S
C53    C54     1.383   .     S
C53    H34     1.085   .     S
C54    C55     1.397   .     D
C54    H35     1.084   .     S
C55    C56     1.396   .     S
C55    C105    1.473   .     S
C56    H36     1.084   .     S
C57    C58     1.536   .     S
C57    C69     1.525   .     S
C58    C59     1.391   .     S
C58    C63     1.398   .     D
C59    C60     1.387   .     D
C59    H37     1.083   .     S
C60    C61     1.393   .     S
C60    H38     1.085   .     S
C61    C62     1.397   .     D
C62    C63     1.381   .     S
C62    H39     1.084   .     S
C63    H40     1.084   .     S
C64    C65     1.390   .     S
C64    C69     1.389   .     D
C64    H41     1.084   .     S
C65    C66     1.394   .     D
C65    H42     1.084   .     S
C66    C67     1.394   .     S
C66    C70     1.543   .     S
C67    C68     1.382   .     D
C67    H43     1.083   .     S
C68    C69     1.396   .     S
C68    H44     1.084   .     S
C70    C74     1.533   .     S
C70    C77     1.544   .     S
C70    C88     1.530   .     S
C71    C72     1.396   .     S
C71    C76     1.396   .     D
C72    C73     1.386   .     D
C72    H45     1.085   .     S
C73    C74     1.393   1_455 S
C73    H46     1.084   .     S
C74    C73     1.393   1_655 S
C74    C75     1.398   .     D
C75    C76     1.385   1_655 S
C75    H47     1.084   .     S
C76    C75     1.385   1_455 S
C76    H48     1.084   .     S
C77    C78     1.359   .     D
C77    C82     1.426   .     S
C78    C79     1.503   .     S
C78    H49     1.084   1_545 S
C79    C80     1.467   .     S
C79    H50     1.105   1_545 S
C79    C143    1.521   1_545 S
C80    C81     1.350   .     S
C81    C82     1.403   .     D
C81    H51     1.083   .     S
C82    H52     1.083   .     S
C83    C84     1.390   1_655 D
C83    C88     1.395   1_565 S
C83    H53     1.085   .     S
C84    C83     1.390   1_455 D
C84    C85     1.395   .     S
C84    H54     1.085   .     S
C85    C86     1.395   .     D
C85    C115    1.477   .     S
C86    C87     1.382   1_465 S
C86    H55     1.084   .     S
C87    C86     1.382   1_645 S
C87    C88     1.395   .     D
C87    H56     1.083   .     S
C88    C83     1.395   1_545 S
H49    C78     1.084   1_565 S
H50    C79     1.105   1_565 S
C89    C90     1.393   .     S
C89    C94     1.396   .     D
C90    C91     1.385   1_554 D
C90    H57     1.085   .     S
C91    C90     1.385   1_556 D
C91    C92     1.392   .     S
C91    H58     1.082   .     S
C92    C93     1.398   1_556 D
C92    C101    1.536   .     S
C93    C92     1.398   1_554 D
C93    C94     1.386   .     S
C93    H59     1.085   .     S
C94    H60     1.085   .     S
C95    C96     1.392   1_554 S
C95    C100    1.386   .     D
C95    H61     1.083   1_655 S
C96    C95     1.392   1_556 S
C96    C97     1.398   .     D
C96    C101    1.532   1_655 S
C97    C98     1.386   .     S
C97    H62     1.085   .     S
C98    C99     1.396   1_556 D
C98    H63     1.085   .     S
C99    C98     1.396   1_554 D
C99    C100    1.393   .     S
C99    C133    1.477   .     S
C100   H64     1.085   .     S
C101   C96     1.532   1_455 S
C101   C102    1.533   1_455 S
C101   C113    1.530   .     S
C102   C101    1.533   1_655 S
C102   C103    1.392   1_655 S
C102   C107    1.398   .     D
C103   C102    1.392   1_455 S
C103   C104    1.386   1_455 D
C103   H65     1.083   .     S
C104   C103    1.386   1_655 D
C104   C105    1.395   .     S
C104   H66     1.084   .     S
C105   C106    1.398   .     D
C106   C107    1.383   .     S
C106   H67     1.084   .     S
C107   H68     1.084   .     S
C108   C109    1.388   .     D
C108   C113    1.391   .     S
C108   H69     1.083   .     S
C109   C110    1.395   .     S
C109   H70     1.084   .     S
C110   C111    1.392   .     D
C110   C114    1.531   .     S
C111   C112    1.386   .     S
C111   H71     1.083   .     S
C112   C113    1.396   .     D
C112   H72     1.085   .     S
C114   C118    1.532   .     S
C114   C121    1.534   .     S
C114   C132    1.533   .     S
C115   C116    1.395   .     S
C115   C120    1.395   .     D
C116   C117    1.385   .     D
C116   H73     1.085   .     S
C117   C118    1.391   .     S
C117   H74     1.083   .     S
C118   C119    1.399   .     D
C119   C120    1.387   .     S
C119   H75     1.085   .     S
C120   H76     1.085   .     S
C121   C122    1.398   .     S
C121   C126    1.391   .     D
C122   C123    1.383   .     D
C122   H77     1.084   .     S
C123   C124    1.396   .     S
C123   H78     1.084   .     S
C124   C125    1.394   .     D
C125   C126    1.386   .     S
C125   H79     1.084   .     S
C126   H80     1.083   .     S
C127   C128    1.384   .     S
C127   C132    1.398   .     D
C127   H81     1.085   .     S
C128   C129    1.397   .     D
C128   H82     1.085   .     S
C129   C130    1.395   .     S
C129   C168    1.473   .     S
C130   C131    1.387   .     D
C130   H83     1.084   .     S
C131   C132    1.391   .     S
C131   H84     1.084   .     S
H61    C95     1.083   1_455 S
C133   C134    1.394   .     S
C133   C138    1.395   .     D
C134   C135    1.385   .     D
C134   H85     1.085   .     S
C135   C136    1.393   .     S
C135   H86     1.083   .     S
C136   C137    1.397   .     D
C136   C145    1.533   .     S
C137   C138    1.387   .     S
C137   H87     1.085   .     S
C138   H88     1.085   .     S
C139   C140    1.390   .     D
C139   C144    1.395   .     S
C139   H89     1.085   .     S
C140   C141    1.399   .     S
C140   C145    1.531   .     S
C141   C142    1.380   .     D
C141   H90     1.084   .     S
C142   C143    1.394   .     S
C142   H91     1.085   .     S
C143   C79     1.521   1_565 S
C143   C144    1.389   .     D
C144   H92     1.085   .     S
C145   C146    1.536   .     S
C145   C157    1.533   .     S
C146   C147    1.391   .     D
C146   C151    1.399   .     S
C147   C148    1.387   .     S
C147   H93     1.083   .     S
C148   C149    1.394   .     D
C148   H94     1.084   .     S
C149   C150    1.399   .     S
C150   C151    1.382   .     D
C150   H95     1.084   .     S
C151   H96     1.084   .     S
C152   C153    1.386   .     S
C152   C157    1.391   .     D
C152   H97     1.083   .     S
C153   C154    1.394   .     D
C153   H98     1.084   1_565 S
C154   C155    1.392   .     S
C154   C158    1.531   .     S
C155   C156    1.387   .     D
C155   H99     1.083   .     S
C156   C157    1.397   .     S
C156   H100    1.085   .     S
C158   C162    1.535   1_565 S
C158   C165    1.535   1_554 S
C158   C176    1.531   1_564 S
C159   C160    1.392   .     S
C159   C164    1.394   .     D
C160   C161    1.386   .     D
C160   H101    1.085   .     S
C161   C162    1.392   .     S
C161   H102    1.083   1_554 S
C162   C158    1.535   1_545 S
C162   C163    1.399   .     D
C163   C164    1.386   .     S
C163   H103    1.085   1_545 S
C164   H104    1.085   .     S
C165   C158    1.535   1_556 S
C165   C166    1.398   .     S
C165   C170    1.392   1_556 D
C166   C167    1.385   .     D
C166   H105    1.085   .     S
C167   C168    1.396   .     S
C167   H106    1.085   .     S
C168   C169    1.394   .     D
C169   C170    1.385   1_556 S
C169   H107    1.084   .     S
C170   C165    1.392   1_554 D
C170   C169    1.385   1_554 S
C170   H108    1.082   .     S
C171   C172    1.382   .     S
C171   C176    1.397   .     D
C171   H109    1.084   .     S
C172   C173    1.397   .     D
C172   H110    1.084   .     S
C173   C174    1.394   .     S
C174   C175    1.388   .     D
C174   H111    1.085   .     S
C175   C176    1.392   .     S
C175   H112    1.084   1_556 S
C176   C158    1.531   1_546 S
H98    C153    1.084   1_545 S
H102   C161    1.083   1_556 S
H103   C163    1.085   1_565 S
H112   C175    1.084   1_554 S
