data_Si_lcy_opt_2
_audit_creation_date              2023-11-28
_audit_creation_method            'Materials Studio'
_symmetry_space_group_name_H-M    'P1'
_symmetry_Int_Tables_number       1
_symmetry_cell_setting            triclinic
loop_
_symmetry_equiv_pos_as_xyz
  x,y,z
_cell_length_a                    22.2577
_cell_length_b                    22.8052
_cell_length_c                    22.1202
_cell_angle_alpha                 90.1392
_cell_angle_beta                  91.1383
_cell_angle_gamma                 90.4337
loop_
_atom_site_label
_atom_site_type_symbol
_atom_site_fract_x
_atom_site_fract_y
_atom_site_fract_z
_atom_site_U_iso_or_equiv
_atom_site_adp_type
_atom_site_occupancy
C1     C     0.59398   0.36660   0.54248   0.00000  Uiso   1.00
C2     C     0.55205   0.40054   0.57273   0.00000  Uiso   1.00
C3     C     0.50976   0.43295   0.54089   0.00000  Uiso   1.00
C4     C     0.50696   0.43306   0.47740   0.00000  Uiso   1.00
C5     C     0.54825   0.39698   0.44782   0.00000  Uiso   1.00
C6     C     0.59081   0.36467   0.47935   0.00000  Uiso   1.00
H1     H     0.55228   0.40144   0.62177   0.00000  Uiso   1.00
H2     H     0.47824   0.45908   0.56613   0.00000  Uiso   1.00
H3     H     0.54720   0.39451   0.39872   0.00000  Uiso   1.00
H4     H     0.62278   0.33866   0.45464   0.00000  Uiso   1.00
C7     C     0.56347   0.53530   0.38557   0.00000  Uiso   1.00
C8     C     0.50038   0.53555   0.38663   0.00000  Uiso   1.00
C9     C     0.47168   0.58130   0.35499   0.00000  Uiso   1.00
C10    C     0.50369   0.62415   0.32498   0.00000  Uiso   1.00
C11    C     0.56648   0.62353   0.32531   0.00000  Uiso   1.00
C12    C     0.59579   0.57804   0.35570   0.00000  Uiso   1.00
Si1    Si    0.45411   0.48120   0.43146   0.00000  Uiso   1.00
C13    C     0.40547   0.52487   0.48454   0.00000  Uiso   1.00
C14    C     0.34263   0.52031   0.48726   0.00000  Uiso   1.00
C15    C     0.30993   0.55345   0.52737   0.00000  Uiso   1.00
C16    C     0.33881   0.59261   0.56710   0.00000  Uiso   1.00
C17    C     0.40131   0.59803   0.56500   0.00000  Uiso   1.00
C18    C     0.43359   0.56516   0.52451   0.00000  Uiso   1.00
C19    C     0.40192   0.43910   0.31691   0.00000  Uiso   1.00
C20    C     0.36520   0.40303   0.28159   0.00000  Uiso   1.00
C21    C     0.32932   0.35874   0.30691   0.00000  Uiso   1.00
C22    C     0.33290   0.35280   0.37007   0.00000  Uiso   1.00
C23    C     0.36973   0.38874   0.40539   0.00000  Uiso   1.00
C24    C     0.40527   0.43330   0.38006   0.00000  Uiso   1.00
Si2    Si    0.28068   0.31037   0.25555   0.00000  Uiso   1.00
C25    C     0.18554   0.43069   0.10889   0.00000  Uiso   1.00
C26    C     0.20186   0.37337   0.09458   0.00000  Uiso   1.00
C27    C     0.23114   0.33864   0.13690   0.00000  Uiso   1.00
C28    C     0.24514   0.35911   0.19554   0.00000  Uiso   1.00
C29    C     0.22866   0.41710   0.20881   0.00000  Uiso   1.00
C30    C     0.19984   0.45224   0.16658   0.00000  Uiso   1.00
C31    C     0.21898   0.27131   0.29817   0.00000  Uiso   1.00
C32    C     0.23274   0.22816   0.34158   0.00000  Uiso   1.00
C33    C     0.18843   0.19713   0.37096   0.00000  Uiso   1.00
C34    C     0.12766   0.20745   0.35815   0.00000  Uiso   1.00
C35    C     0.11305   0.25039   0.31553   0.00000  Uiso   1.00
C36    C     0.15764   0.28146   0.28648   0.00000  Uiso   1.00
C37    C     0.30755   0.19533   0.20744   0.00000  Uiso   1.00
C38    C     0.34208   0.15372   0.17897   0.00000  Uiso   1.00
C39    C     0.39986   0.16758   0.15984   0.00000  Uiso   1.00
C40    C     0.42209   0.22416   0.17064   0.00000  Uiso   1.00
C41    C     0.38750   0.26539   0.19959   0.00000  Uiso   1.00
C42    C     0.32897   0.25257   0.21873   0.00000  Uiso   1.00
H5     H     0.58811   0.50096   0.40898   0.00000  Uiso   1.00
H6     H     0.42290   0.58368   0.35446   0.00000  Uiso   1.00
H7     H     0.47974   0.65924   0.30217   0.00000  Uiso   1.00
H8     H     0.64446   0.57582   0.35570   0.00000  Uiso   1.00
H9     H     0.31861   0.49005   0.45729   0.00000  Uiso   1.00
H10    H     0.26148   0.54818   0.52850   0.00000  Uiso   1.00
H11    H     0.42463   0.62896   0.59469   0.00000  Uiso   1.00
H12    H     0.48210   0.57097   0.52363   0.00000  Uiso   1.00
H13    H     0.42855   0.47268   0.29494   0.00000  Uiso   1.00
H14    H     0.36404   0.40965   0.23293   0.00000  Uiso   1.00
H15    H     0.30612   0.31940   0.39212   0.00000  Uiso   1.00
H16    H     0.37107   0.38215   0.45407   0.00000  Uiso   1.00
H17    H     0.19210   0.35608   0.04969   0.00000  Uiso   1.00
H18    H     0.24336   0.29431   0.12417   0.00000  Uiso   1.00
H19    H     0.23848   0.43508   0.25349   0.00000  Uiso   1.00
H20    H     0.18716   0.49647   0.17883   0.00000  Uiso   1.00
H21    H     0.27946   0.21843   0.35236   0.00000  Uiso   1.00
H22    H     0.20115   0.16480   0.40466   0.00000  Uiso   1.00
H23    H     0.06631   0.25890   0.30410   0.00000  Uiso   1.00
H24    H     0.14437   0.31427   0.25340   0.00000  Uiso   1.00
H25    H     0.26263   0.18303   0.22125   0.00000  Uiso   1.00
H26    H     0.32361   0.11023   0.17054   0.00000  Uiso   1.00
H27    H     0.46720   0.23570   0.15700   0.00000  Uiso   1.00
H28    H     0.40651   0.30880   0.20759   0.00000  Uiso   1.00
C43    C     0.69013   0.11991   0.83255   0.00000  Uiso   1.00
C44    C     0.66420   0.17055   0.80845   0.00000  Uiso   1.00
C45    C     0.69459   0.20436   0.76702   0.00000  Uiso   1.00
C46    C     0.75220   0.18941   0.74736   0.00000  Uiso   1.00
C47    C     0.77773   0.13860   0.77263   0.00000  Uiso   1.00
C48    C     0.74765   0.10467   0.81431   0.00000  Uiso   1.00
H29    H     0.62001   0.18389   0.82280   0.00000  Uiso   1.00
H30    H     0.67291   0.24338   0.74922   0.00000  Uiso   1.00
H31    H     0.82220   0.12514   0.75902   0.00000  Uiso   1.00
H32    H     0.76856   0.06530   0.83205   0.00000  Uiso   1.00
C49    C     0.84798   0.29604   0.79290   0.00000  Uiso   1.00
C50    C     0.83903   0.29508   0.72985   0.00000  Uiso   1.00
C51    C     0.86234   0.34298   0.69760   0.00000  Uiso   1.00
C52    C     0.89164   0.38924   0.72639   0.00000  Uiso   1.00
C53    C     0.89879   0.38995   0.78927   0.00000  Uiso   1.00
C54    C     0.87703   0.34230   0.82202   0.00000  Uiso   1.00
Si3    Si    0.79230   0.23639   0.68979   0.00000  Uiso   1.00
C55    C     0.73315   0.27582   0.64227   0.00000  Uiso   1.00
C56    C     0.70673   0.25180   0.58945   0.00000  Uiso   1.00
C57    C     0.66182   0.28044   0.55727   0.00000  Uiso   1.00
C58    C     0.64103   0.33492   0.57645   0.00000  Uiso   1.00
C59    C     0.66680   0.35963   0.62878   0.00000  Uiso   1.00
C60    C     0.71155   0.33071   0.66075   0.00000  Uiso   1.00
C61    C     0.89485   0.20239   0.61693   0.00000  Uiso   1.00
C62    C     0.92371   0.16732   0.57546   0.00000  Uiso   1.00
C63    C     0.89747   0.11534   0.55272   0.00000  Uiso   1.00
C64    C     0.84103   0.10002   0.57582   0.00000  Uiso   1.00
C65    C     0.81232   0.13481   0.61736   0.00000  Uiso   1.00
C66    C     0.83792   0.18770   0.63882   0.00000  Uiso   1.00
Si4    Si    0.93269   0.06589   0.49366   0.00000  Uiso   1.00
C67    C     0.08049   0.17364   0.38861   0.00000  Uiso   1.00
C68    C     0.08893   0.11461   0.40300   0.00000  Uiso   1.00
C69    C     0.04513   0.08315   0.43273   0.00000  Uiso   1.00
C70    C     0.99057   0.10866   0.44950   0.00000  Uiso   1.00
C71    C     0.98250   0.16783   0.43361   0.00000  Uiso   1.00
C72    C     0.02622   0.19960   0.40408   0.00000  Uiso   1.00
C73    C     0.86517   0.04198   0.44514   0.00000  Uiso   1.00
C74    C     0.83074   0.99382   0.45744   0.00000  Uiso   1.00
C75    C     0.76971   0.98752   0.42776   0.00000  Uiso   1.00
C76    C     0.74701   0.04469   0.40788   0.00000  Uiso   1.00
C77    C     0.77576   0.09621   0.41167   0.00000  Uiso   1.00
C78    C     0.83915   0.08893   0.41176   0.00000  Uiso   1.00
C79    C     0.97789   0.94588   0.51591   0.00000  Uiso   1.00
C80    C     0.01161   0.90541   0.54833   0.00000  Uiso   1.00
C81    C     0.04228   0.92168   0.60154   0.00000  Uiso   1.00
C82    C     0.03735   0.97952   0.62169   0.00000  Uiso   1.00
C83    C     0.00334   0.01954   0.58937   0.00000  Uiso   1.00
C84    C     0.97266   0.00432   0.53520   0.00000  Uiso   1.00
H33    H     0.83140   0.25987   0.81991   0.00000  Uiso   1.00
H34    H     0.85666   0.34433   0.64870   0.00000  Uiso   1.00
H35    H     0.90789   0.42587   0.69995   0.00000  Uiso   1.00
H36    H     0.88324   0.34126   0.87078   0.00000  Uiso   1.00
H37    H     0.72172   0.20953   0.57301   0.00000  Uiso   1.00
H38    H     0.64219   0.25990   0.51716   0.00000  Uiso   1.00
H39    H     0.65239   0.40239   0.64413   0.00000  Uiso   1.00
H40    H     0.73054   0.35154   0.70109   0.00000  Uiso   1.00
H41    H     0.91709   0.24238   0.63254   0.00000  Uiso   1.00
H42    H     0.96770   0.18095   0.56006   0.00000  Uiso   1.00
H43    H     0.81879   0.05991   0.56051   0.00000  Uiso   1.00
H44    H     0.76871   0.12075   0.63352   0.00000  Uiso   1.00
H45    H     0.13003   0.09288   0.39039   0.00000  Uiso   1.00
H46    H     0.05362   0.03745   0.44343   0.00000  Uiso   1.00
H47    H     0.94107   0.18975   0.44508   0.00000  Uiso   1.00
H48    H     0.01853   0.24549   0.39397   0.00000  Uiso   1.00
H49    H     0.84282   0.96264   0.49255   0.00000  Uiso   1.00
H50    H     0.73986   0.97203   0.46356   0.00000  Uiso   1.00
H51    H     0.75523   0.13802   0.40173   0.00000  Uiso   1.00
H52    H     0.86677   0.11843   0.38544   0.00000  Uiso   1.00
H53    H     0.95524   0.93172   0.47439   0.00000  Uiso   1.00
H54    H     0.01505   0.86086   0.53149   0.00000  Uiso   1.00
H55    H     0.05973   0.99306   0.66349   0.00000  Uiso   1.00
H56    H     0.00046   0.06407   0.60667   0.00000  Uiso   1.00
C85    C     0.15227   0.46711   0.06493   0.00000  Uiso   1.00
C86    C     0.10573   0.44253   0.02980   0.00000  Uiso   1.00
C87    C     0.07242   0.47683   0.99025   0.00000  Uiso   1.00
C88    C     0.08406   0.53710   0.98329   0.00000  Uiso   1.00
C89    C     0.13198   0.56070   0.01821   0.00000  Uiso   1.00
C90    C     0.16515   0.52676   0.05829   0.00000  Uiso   1.00
H57    H     0.09466   0.39637   0.03447   0.00000  Uiso   1.00
H58    H     0.03613   0.45618   0.96428   0.00000  Uiso   1.00
H59    H     0.14347   0.60688   0.01390   0.00000  Uiso   1.00
H60    H     0.20184   0.54658   0.08433   0.00000  Uiso   1.00
C91    C     0.99445   0.63780   0.04451   0.00000  Uiso   1.00
C92    C     0.98396   0.63050   0.98205   0.00000  Uiso   1.00
C93    C     0.93304   0.65860   0.95738   0.00000  Uiso   1.00
C94    C     0.89506   0.69139   0.99264   0.00000  Uiso   1.00
C95    C     0.90592   0.69739   0.05480   0.00000  Uiso   1.00
C96    C     0.95645   0.67023   0.08012   0.00000  Uiso   1.00
Si5    Si    0.03455   0.58466   0.93290   0.00000  Uiso   1.00
C97    C     0.98791   0.53234   0.88398   0.00000  Uiso   1.00
C98    C     0.00754   0.51253   0.82753   0.00000  Uiso   1.00
C99    C     0.97856   0.46741   0.79646   0.00000  Uiso   1.00
C100   C     0.92839   0.43965   0.82067   0.00000  Uiso   1.00
C101   C     0.90710   0.45975   0.87593   0.00000  Uiso   1.00
C102   C     0.93618   0.50497   0.90665   0.00000  Uiso   1.00
C103   C     0.06627   0.69028   0.86671   0.00000  Uiso   1.00
C104   C     0.09977   0.72295   0.82666   0.00000  Uiso   1.00
C105   C     0.15130   0.70027   0.79959   0.00000  Uiso   1.00
C106   C     0.16728   0.64275   0.81559   0.00000  Uiso   1.00
C107   C     0.13391   0.61015   0.85576   0.00000  Uiso   1.00
C108   C     0.08209   0.63272   0.88252   0.00000  Uiso   1.00
Si6    Si    0.19979   0.74659   0.74831   0.00000  Uiso   1.00
C109   C     0.07942   0.87979   0.63613   0.00000  Uiso   1.00
C110   C     0.13399   0.89793   0.66260   0.00000  Uiso   1.00
C111   C     0.16888   0.85928   0.69596   0.00000  Uiso   1.00
C112   C     0.15113   0.80072   0.70488   0.00000  Uiso   1.00
C113   C     0.09608   0.78331   0.67775   0.00000  Uiso   1.00
C114   C     0.06110   0.82165   0.64406   0.00000  Uiso   1.00
C115   C     0.24072   0.69849   0.69256   0.00000  Uiso   1.00
C116   C     0.29524   0.67149   0.70912   0.00000  Uiso   1.00
C117   C     0.32659   0.63722   0.66904   0.00000  Uiso   1.00
C118   C     0.30463   0.62792   0.61018   0.00000  Uiso   1.00
C119   C     0.25013   0.65352   0.59306   0.00000  Uiso   1.00
C120   C     0.21920   0.68809   0.63330   0.00000  Uiso   1.00
C121   C     0.30972   0.81177   0.77166   0.00000  Uiso   1.00
C122   C     0.35348   0.83974   0.80668   0.00000  Uiso   1.00
C123   C     0.34815   0.84347   0.86941   0.00000  Uiso   1.00
C124   C     0.29757   0.81836   0.89566   0.00000  Uiso   1.00
C125   C     0.25400   0.79036   0.86036   0.00000  Uiso   1.00
C126   C     0.25850   0.78601   0.79721   0.00000  Uiso   1.00
H61    H     0.03321   0.61728   0.06597   0.00000  Uiso   1.00
H62    H     0.92262   0.65417   0.90936   0.00000  Uiso   1.00
H63    H     0.85575   0.71153   0.97197   0.00000  Uiso   1.00
H64    H     0.96641   0.67493   0.12811   0.00000  Uiso   1.00
H65    H     0.04687   0.53259   0.80759   0.00000  Uiso   1.00
H66    H     0.99596   0.45262   0.75362   0.00000  Uiso   1.00
H67    H     0.86722   0.43994   0.89487   0.00000  Uiso   1.00
H68    H     0.91852   0.51930   0.94964   0.00000  Uiso   1.00
H69    H     0.02682   0.71000   0.88628   0.00000  Uiso   1.00
H70    H     0.08554   0.76729   0.81598   0.00000  Uiso   1.00
H71    H     0.20679   0.62310   0.79605   0.00000  Uiso   1.00
H72    H     0.14842   0.56599   0.86686   0.00000  Uiso   1.00
H73    H     0.14969   0.94262   0.65636   0.00000  Uiso   1.00
H74    H     0.21104   0.87511   0.71574   0.00000  Uiso   1.00
H75    H     0.08006   0.73857   0.68350   0.00000  Uiso   1.00
H76    H     0.01859   0.80661   0.62455   0.00000  Uiso   1.00
H77    H     0.31377   0.67784   0.75450   0.00000  Uiso   1.00
H78    H     0.36833   0.61697   0.68371   0.00000  Uiso   1.00
H79    H     0.23243   0.64734   0.54742   0.00000  Uiso   1.00
H80    H     0.17734   0.70791   0.61808   0.00000  Uiso   1.00
H81    H     0.31548   0.80966   0.72303   0.00000  Uiso   1.00
H82    H     0.39190   0.85959   0.78503   0.00000  Uiso   1.00
H83    H     0.29271   0.81990   0.94434   0.00000  Uiso   1.00
H84    H     0.21550   0.77109   0.88253   0.00000  Uiso   1.00
C127   C     0.86401   0.73015   0.09273   0.00000  Uiso   1.00
C128   C     0.84858   0.70910   0.14967   0.00000  Uiso   1.00
C129   C     0.80659   0.73789   0.18395   0.00000  Uiso   1.00
C130   C     0.77819   0.78930   0.16360   0.00000  Uiso   1.00
C131   C     0.79579   0.81071   0.10701   0.00000  Uiso   1.00
C132   C     0.83744   0.78190   0.07226   0.00000  Uiso   1.00
H85    H     0.86839   0.66886   0.16653   0.00000  Uiso   1.00
H86    H     0.79494   0.71949   0.22748   0.00000  Uiso   1.00
H87    H     0.77592   0.85071   0.08940   0.00000  Uiso   1.00
H88    H     0.84963   0.79989   0.02880   0.00000  Uiso   1.00
C133   C     0.79754   0.88877   0.29107   0.00000  Uiso   1.00
C134   C     0.73910   0.87120   0.27398   0.00000  Uiso   1.00
C135   C     0.69217   0.89172   0.31013   0.00000  Uiso   1.00
C136   C     0.70302   0.92792   0.35932   0.00000  Uiso   1.00
C137   C     0.76154   0.94482   0.37524   0.00000  Uiso   1.00
C138   C     0.80877   0.92487   0.34084   0.00000  Uiso   1.00
Si7    Si    0.71472   0.82352   0.20725   0.00000  Uiso   1.00
C139   C     0.66758   0.76201   0.24071   0.00000  Uiso   1.00
C140   C     0.61392   0.73995   0.21469   0.00000  Uiso   1.00
C141   C     0.58135   0.69533   0.24138   0.00000  Uiso   1.00
C142   C     0.60107   0.67029   0.29573   0.00000  Uiso   1.00
C143   C     0.65449   0.69140   0.32228   0.00000  Uiso   1.00
C144   C     0.68665   0.73609   0.29544   0.00000  Uiso   1.00
C145   C     0.65228   0.92774   0.16443   0.00000  Uiso   1.00
C146   C     0.61571   0.95944   0.12535   0.00000  Uiso   1.00
C147   C     0.59084   0.93454   0.07221   0.00000  Uiso   1.00
C148   C     0.60572   0.87585   0.06052   0.00000  Uiso   1.00
C149   C     0.64258   0.84429   0.09944   0.00000  Uiso   1.00
C150   C     0.66680   0.86894   0.15311   0.00000  Uiso   1.00
Si8    Si    0.54237   0.98028   0.01918   0.00000  Uiso   1.00
C151   C     0.43597   0.12372   0.12814   0.00000  Uiso   1.00
C152   C     0.46962   0.13966   0.07811   0.00000  Uiso   1.00
C153   C     0.50193   0.09813   0.04695   0.00000  Uiso   1.00
C154   C     0.50280   0.03891   0.06434   0.00000  Uiso   1.00
C155   C     0.46953   0.02405   0.11564   0.00000  Uiso   1.00
C156   C     0.43668   0.06521   0.14668   0.00000  Uiso   1.00
C157   C     0.48298   0.93501   0.97691   0.00000  Uiso   1.00
C158   C     0.49833   0.89932   0.92765   0.00000  Uiso   1.00
C159   C     0.45534   0.86939   0.89338   0.00000  Uiso   1.00
C160   C     0.39443   0.87364   0.90675   0.00000  Uiso   1.00
C161   C     0.37831   0.90806   0.95606   0.00000  Uiso   1.00
C162   C     0.42155   0.93795   0.99006   0.00000  Uiso   1.00
C163   C     0.56287   0.04253   0.90914   0.00000  Uiso   1.00
C164   C     0.59495   0.07481   0.86775   0.00000  Uiso   1.00
C165   C     0.65673   0.08390   0.87590   0.00000  Uiso   1.00
C166   C     0.68534   0.05881   0.92617   0.00000  Uiso   1.00
C167   C     0.65286   0.02678   0.96763   0.00000  Uiso   1.00
C168   C     0.59056   0.01790   0.96080   0.00000  Uiso   1.00
H89    H     0.83535   0.87414   0.26479   0.00000  Uiso   1.00
H90    H     0.64603   0.87896   0.29925   0.00000  Uiso   1.00
H91    H     0.66579   0.94371   0.38564   0.00000  Uiso   1.00
H92    H     0.85457   0.93768   0.35270   0.00000  Uiso   1.00
H93    H     0.59688   0.75827   0.17251   0.00000  Uiso   1.00
H94    H     0.54039   0.67935   0.21938   0.00000  Uiso   1.00
H95    H     0.67040   0.67348   0.36502   0.00000  Uiso   1.00
H96    H     0.72757   0.75177   0.31794   0.00000  Uiso   1.00
H97    H     0.67000   0.94937   0.20487   0.00000  Uiso   1.00
H98    H     0.60598   0.00478   0.13651   0.00000  Uiso   1.00
H99    H     0.58792   0.85438   0.01999   0.00000  Uiso   1.00
H100   H     0.65301   0.79920   0.08784   0.00000  Uiso   1.00
H101   H     0.46948   0.18477   0.06266   0.00000  Uiso   1.00
H102   H     0.52702   0.11214   0.00785   0.00000  Uiso   1.00
H103   H     0.46941   0.97900   0.13158   0.00000  Uiso   1.00
H104   H     0.41178   0.05202   0.18613   0.00000  Uiso   1.00
H105   H     0.54520   0.89530   0.91554   0.00000  Uiso   1.00
H106   H     0.46923   0.84211   0.85600   0.00000  Uiso   1.00
H107   H     0.33131   0.91261   0.96711   0.00000  Uiso   1.00
H108   H     0.40701   0.96483   0.02755   0.00000  Uiso   1.00
H109   H     0.51489   0.03626   0.90128   0.00000  Uiso   1.00
H110   H     0.57197   0.09273   0.82831   0.00000  Uiso   1.00
H111   H     0.73324   0.06546   0.93355   0.00000  Uiso   1.00
H112   H     0.67647   0.00842   0.00656   0.00000  Uiso   1.00
loop_
_geom_bond_atom_site_label_1
_geom_bond_atom_site_label_2
_geom_bond_distance
_geom_bond_site_symmetry_2
_ccdc_geom_bond_type
C1     C2      1.397   .     D
C1     C6      1.397   .     S
C1     C58     1.472   .     S
C2     C3      1.384   .     S
C2     H1      1.085   .     S
C3     C4      1.405   .     D
C3     H2      1.086   .     S
C4     C5      1.408   .     S
C4     Si1     1.897   .     S
C5     C6      1.383   .     D
C5     H3      1.087   .     S
C6     H4      1.085   .     S
C7     C8      1.405   .     D
C7     C12     1.384   .     S
C7     H5      1.086   .     S
C8     C9      1.408   .     S
C8     Si1     1.899   .     S
C9     C10     1.384   .     D
C9     H6      1.087   .     S
C10    C11     1.398   .     S
C10    H7      1.085   .     S
C11    C12     1.396   .     D
C11    C142    1.473   .     S
C12    H8      1.085   .     S
Si1    C13     1.898   .     S
Si1    C24     1.896   .     S
C13    C14     1.404   .     D
C13    C18     1.408   .     S
C14    C15     1.385   .     S
C14    H9      1.086   .     S
C15    C16     1.396   .     D
C15    H10     1.085   .     S
C16    C17     1.397   .     S
C16    C118    1.473   .     S
C17    C18     1.382   .     D
C17    H11     1.085   .     S
C18    H12     1.087   .     S
C19    C20     1.384   .     D
C19    C24     1.404   .     S
C19    H13     1.086   .     S
C20    C21     1.407   .     S
C20    H14     1.087   .     S
C21    C22     1.405   .     D
C21    Si2     1.899   .     S
C22    C23     1.384   .     S
C22    H15     1.086   .     S
C23    C24     1.407   .     D
C23    H16     1.087   .     S
Si2    C28     1.898   .     S
Si2    C31     1.899   .     S
Si2    C42     1.899   .     S
C25    C26     1.397   .     S
C25    C30     1.396   .     D
C25    C85     1.473   .     S
C26    C27     1.384   .     D
C26    H17     1.085   .     S
C27    C28     1.406   .     S
C27    H18     1.087   .     S
C28    C29     1.407   .     D
C29    C30     1.383   .     S
C29    H19     1.087   .     S
C30    H20     1.085   .     S
C31    C32     1.408   .     D
C31    C36     1.406   .     S
C32    C33     1.383   .     S
C32    H21     1.087   .     S
C33    C34     1.398   .     D
C33    H22     1.085   .     S
C34    C35     1.397   .     S
C34    C67     1.473   .     S
C35    C36     1.385   .     D
C35    H23     1.085   .     S
C36    H24     1.086   .     S
C37    C38     1.384   .     S
C37    C42     1.406   .     D
C37    H25     1.086   .     S
C38    C39     1.396   .     D
C38    H26     1.085   .     S
C39    C40     1.397   .     S
C39    C151    1.473   .     S
C40    C41     1.384   .     D
C40    H27     1.085   .     S
C41    C42     1.407   .     S
C41    H28     1.086   .     S
C43    C44     1.397   .     D
C43    C48     1.396   .     S
C43    C165    1.473   .     S
C44    C45     1.383   .     S
C44    H29     1.085   .     S
C45    C46     1.406   .     D
C45    H30     1.086   .     S
C46    C47     1.407   .     S
C46    Si3     1.898   .     S
C47    C48     1.385   .     D
C47    H31     1.087   .     S
C48    H32     1.085   .     S
C49    C50     1.405   .     S
C49    C54     1.384   .     D
C49    H33     1.086   .     S
C50    C51     1.408   .     D
C50    Si3     1.896   .     S
C51    C52     1.383   .     S
C51    H34     1.087   .     S
C52    C53     1.397   .     D
C52    H35     1.085   .     S
C53    C54     1.396   .     S
C53    C100    1.472   .     S
C54    H36     1.085   .     S
Si3    C55     1.901   .     S
Si3    C66     1.895   .     S
C55    C56     1.406   .     S
C55    C60     1.407   .     D
C56    C57     1.384   .     D
C56    H37     1.087   .     S
C57    C58     1.397   .     S
C57    H38     1.085   .     S
C58    C59     1.397   .     D
C59    C60     1.383   .     S
C59    H39     1.085   .     S
C60    H40     1.086   .     S
C61    C62     1.386   .     D
C61    C66     1.404   .     S
C61    H41     1.087   .     S
C62    C63     1.405   .     S
C62    H42     1.087   .     S
C63    C64     1.407   .     D
C63    Si4     1.908   .     S
C64    C65     1.382   .     S
C64    H43     1.087   .     S
C65    C66     1.407   .     D
C65    H44     1.087   .     S
Si4    C70     1.898   .     S
Si4    C73     1.905   .     S
Si4    C84     1.897   .     S
C67    C68     1.397   .     S
C67    C72     1.397   .     D
C68    C69     1.384   .     D
C68    H45     1.085   .     S
C69    C70     1.407   1_455 S
C69    H46     1.086   .     S
C70    C69     1.407   1_655 S
C70    C71     1.407   .     D
C71    C72     1.384   1_655 S
C71    H47     1.086   .     S
C72    C71     1.384   1_455 S
C72    H48     1.085   .     S
C73    C74     1.365   1_545 D
C73    C78     1.422   .     S
C74    C73     1.365   1_565 D
C74    C75     1.503   .     S
C74    H49     1.086   .     S
C75    C76     1.467   1_565 S
C75    H50     1.101   .     S
C75    C137    1.521   .     S
C76    C75     1.467   1_545 S
C76    C77     1.335   .     S
C77    C78     1.422   .     D
C77    H51     1.082   .     S
C78    H52     1.086   .     S
C79    C80     1.386   1_655 D
C79    C84     1.405   1_565 S
C79    H53     1.086   .     S
C80    C79     1.386   1_455 D
C80    C81     1.397   .     S
C80    H54     1.085   .     S
C81    C82     1.397   .     D
C81    C109    1.474   .     S
C82    C83     1.382   1_565 S
C82    H55     1.085   .     S
C83    C82     1.382   1_545 S
C83    C84     1.409   1_455 D
C83    H56     1.087   .     S
C84    C79     1.405   1_545 S
C84    C83     1.409   1_655 D
C85    C86     1.396   .     S
C85    C90     1.397   .     D
C86    C87     1.383   1_554 D
C86    H57     1.085   .     S
C87    C86     1.383   1_556 D
C87    C88     1.406   .     S
C87    H58     1.086   .     S
C88    C89     1.407   1_556 D
C88    Si5     1.900   .     S
C89    C88     1.407   1_554 D
C89    C90     1.384   .     S
C89    H59     1.087   .     S
C90    H60     1.085   .     S
C91    C92     1.406   1_554 D
C91    C96     1.384   .     S
C91    H61     1.086   1_655 S
C92    C91     1.406   1_556 D
C92    C93     1.408   .     S
C92    Si5     1.898   1_655 S
C93    C94     1.384   .     D
C93    H62     1.087   .     S
C94    C95     1.398   1_556 S
C94    H63     1.085   .     S
C95    C94     1.398   1_554 S
C95    C96     1.396   .     D
C95    C127    1.473   .     S
C96    H64     1.085   .     S
Si5    C92     1.898   1_455 S
Si5    C97     1.898   1_455 S
Si5    C108    1.897   .     S
C97    Si5     1.898   1_655 S
C97    C98     1.406   1_655 S
C97    C102    1.407   .     D
C98    C97     1.406   1_455 S
C98    C99     1.384   1_455 D
C98    H65     1.086   .     S
C99    C98     1.384   1_655 D
C99    C100    1.396   .     S
C99    H66     1.085   .     S
C100   C101    1.397   .     D
C101   C102    1.383   .     S
C101   H67     1.085   .     S
C102   H68     1.087   .     S
C103   C104    1.385   .     S
C103   C108    1.405   .     D
C103   H69     1.087   .     S
C104   C105    1.406   .     D
C104   H70     1.087   .     S
C105   C106    1.406   .     S
C105   Si6     1.899   .     S
C106   C107    1.384   .     D
C106   H71     1.087   .     S
C107   C108    1.407   .     S
C107   H72     1.087   .     S
Si6    C112    1.899   .     S
Si6    C115    1.899   .     S
Si6    C126    1.899   .     S
C109   C110    1.397   .     S
C109   C114    1.397   .     D
C110   C111    1.384   .     D
C110   H73     1.085   .     S
C111   C112    1.405   .     S
C111   H74     1.086   .     S
C112   C113    1.408   .     D
C113   C114    1.384   .     S
C113   H75     1.087   .     S
C114   H76     1.085   .     S
C115   C116    1.407   .     S
C115   C120    1.406   .     D
C116   C117    1.383   .     D
C116   H77     1.087   .     S
C117   C118    1.397   .     S
C117   H78     1.085   .     S
C118   C119    1.396   .     D
C119   C120    1.385   .     S
C119   H79     1.085   .     S
C120   H80     1.086   .     S
C121   C122    1.383   .     S
C121   C126    1.408   .     D
C121   H81     1.087   .     S
C122   C123    1.397   .     D
C122   H82     1.085   .     S
C123   C124    1.397   .     S
C123   C160    1.473   .     S
C124   C125    1.384   .     D
C124   H83     1.085   .     S
C125   C126    1.406   .     S
C125   H84     1.086   .     S
H61    C91     1.086   1_455 S
C127   C128    1.397   .     S
C127   C132    1.396   .     D
C128   C129    1.384   .     D
C128   H85     1.085   .     S
C129   C130    1.407   .     S
C129   H86     1.087   .     S
C130   C131    1.407   .     D
C130   Si7     1.898   .     S
C131   C132    1.385   .     S
C131   H87     1.086   .     S
C132   H88     1.085   .     S
C133   C134    1.403   .     S
C133   C138    1.391   .     D
C133   H89     1.086   .     S
C134   C135    1.410   .     D
C134   Si7     1.899   .     S
C135   C136    1.381   .     S
C135   H90     1.087   .     S
C136   C137    1.394   .     D
C136   H91     1.085   .     S
C137   C138    1.389   .     S
C138   H92     1.085   .     S
Si7    C139    1.905   .     S
Si7    C150    1.902   .     S
C139   C140    1.405   .     D
C139   C144    1.408   .     S
C140   C141    1.385   .     S
C140   H93     1.086   .     S
C141   C142    1.397   .     D
C141   H94     1.085   .     S
C142   C143    1.397   .     S
C143   C144    1.383   .     D
C143   H95     1.085   .     S
C144   H96     1.087   .     S
C145   C146    1.384   .     S
C145   C150    1.405   .     D
C145   H97     1.086   .     S
C146   C147    1.406   .     D
C146   H98     1.087   1_565 S
C147   C148    1.406   .     S
C147   Si8     1.898   .     S
C148   C149    1.384   .     D
C148   H99     1.087   .     S
C149   C150    1.408   .     S
C149   H100    1.087   .     S
Si8    C154    1.899   1_565 S
Si8    C157    1.901   1_554 S
Si8    C168    1.898   1_564 S
C151   C152    1.396   .     S
C151   C156    1.397   .     D
C152   C153    1.384   .     D
C152   H101    1.085   .     S
C153   C154    1.405   .     S
C153   H102    1.086   .     S
C154   Si8     1.899   1_545 S
C154   C155    1.408   .     D
C155   C156    1.384   .     S
C155   H103    1.087   1_545 S
C156   H104    1.085   .     S
C157   Si8     1.901   1_556 S
C157   C158    1.408   .     S
C157   C162    1.406   .     D
C158   C159    1.384   .     D
C158   H105    1.087   .     S
C159   C160    1.397   .     S
C159   H106    1.085   .     S
C160   C161    1.397   .     D
C161   C162    1.384   .     S
C161   H107    1.085   .     S
C162   H108    1.086   1_556 S
C163   C164    1.382   .     S
C163   C168    1.408   .     D
C163   H109    1.087   .     S
C164   C165    1.397   .     D
C164   H110    1.085   .     S
C165   C166    1.396   .     S
C166   C167    1.385   .     D
C166   H111    1.085   .     S
C167   C168    1.405   .     S
C167   H112    1.086   1_556 S
C168   Si8     1.898   1_546 S
H98    C146    1.087   1_545 S
H103   C155    1.087   1_565 S
H108   C162    1.086   1_554 S
H112   C167    1.086   1_554 S
